<?xml version="1.0" encoding="UTF-8"?>

<!-- generated on 2025-05-18 00:53:12 by Eclipse SUMO netgenerate Version 1.11.0
<configuration xmlns:xsi="http://www.w3.org/2001/XMLSchema-instance" xsi:noNamespaceSchemaLocation="http://sumo.dlr.de/xsd/netgenerateConfiguration.xsd">

    <grid_network>
        <grid value="true"/>
        <grid.number value="10"/>
        <grid.length value="300"/>
    </grid_network>

    <output>
        <output-file value="network.net.xml"/>
    </output>

    <tls_building>
        <tls.green.time value="10"/>
    </tls_building>

    <junctions>
        <no-turnarounds value="true"/>
    </junctions>

</configuration>
-->

<net version="1.9" junctionCornerDetail="5" limitTurnSpeed="5.50" xmlns:xsi="http://www.w3.org/2001/XMLSchema-instance" xsi:noNamespaceSchemaLocation="http://sumo.dlr.de/xsd/net_file.xsd">

    <location netOffset="0.00,0.00" convBoundary="0.00,0.00,2700.00,2700.00" origBoundary="0.00,0.00,2700.00,2700.00" projParameter="!"/>

    <edge id=":A0_0" function="internal">
        <lane id=":A0_0_0" index="0" speed="6.08" length="7.74" shape="-1.60,3.20 -1.30,1.10 -0.40,-0.40 1.10,-1.30 3.20,-1.60"/>
    </edge>
    <edge id=":A0_1" function="internal">
        <lane id=":A0_1_0" index="0" speed="3.90" length="2.58" shape="3.20,1.60 2.50,1.70 2.00,2.00 1.70,2.50 1.60,3.20"/>
    </edge>
    <edge id=":A1_0" function="internal">
        <lane id=":A1_0_0" index="0" speed="13.89" length="14.40" shape="-1.60,307.20 -1.60,292.80"/>
    </edge>
    <edge id=":A1_1" function="internal">
        <lane id=":A1_1_0" index="0" speed="8.00" length="5.93" shape="-1.60,307.20 -1.05,303.35 -0.00,301.60"/>
    </edge>
    <edge id=":A1_6" function="internal">
        <lane id=":A1_6_0" index="0" speed="8.00" length="8.26" shape="-0.00,301.60 0.60,300.60 3.35,298.95 7.20,298.40"/>
    </edge>
    <edge id=":A1_2" function="internal">
        <lane id=":A1_2_0" index="0" speed="6.51" length="9.03" shape="7.20,301.60 4.75,301.95 3.00,303.00 1.95,304.75 1.60,307.20"/>
    </edge>
    <edge id=":A1_3" function="internal">
        <lane id=":A1_3_0" index="0" speed="8.00" length="14.19" shape="7.20,301.60 3.35,301.05 0.60,299.40 -1.05,296.65 -1.60,292.80"/>
    </edge>
    <edge id=":A1_4" function="internal">
        <lane id=":A1_4_0" index="0" speed="6.51" length="9.03" shape="1.60,292.80 1.95,295.25 3.00,297.00 4.75,298.05 7.20,298.40"/>
    </edge>
    <edge id=":A1_5" function="internal">
        <lane id=":A1_5_0" index="0" speed="13.89" length="14.40" shape="1.60,292.80 1.60,307.20"/>
    </edge>
    <edge id=":A2_0" function="internal">
        <lane id=":A2_0_0" index="0" speed="13.89" length="14.40" shape="-1.60,607.20 -1.60,592.80"/>
    </edge>
    <edge id=":A2_1" function="internal">
        <lane id=":A2_1_0" index="0" speed="8.00" length="5.93" shape="-1.60,607.20 -1.05,603.35 0.00,601.60"/>
    </edge>
    <edge id=":A2_6" function="internal">
        <lane id=":A2_6_0" index="0" speed="8.00" length="8.26" shape="0.00,601.60 0.60,600.60 3.35,598.95 7.20,598.40"/>
    </edge>
    <edge id=":A2_2" function="internal">
        <lane id=":A2_2_0" index="0" speed="6.51" length="9.03" shape="7.20,601.60 4.75,601.95 3.00,603.00 1.95,604.75 1.60,607.20"/>
    </edge>
    <edge id=":A2_3" function="internal">
        <lane id=":A2_3_0" index="0" speed="8.00" length="14.19" shape="7.20,601.60 3.35,601.05 0.60,599.40 -1.05,596.65 -1.60,592.80"/>
    </edge>
    <edge id=":A2_4" function="internal">
        <lane id=":A2_4_0" index="0" speed="6.51" length="9.03" shape="1.60,592.80 1.95,595.25 3.00,597.00 4.75,598.05 7.20,598.40"/>
    </edge>
    <edge id=":A2_5" function="internal">
        <lane id=":A2_5_0" index="0" speed="13.89" length="14.40" shape="1.60,592.80 1.60,607.20"/>
    </edge>
    <edge id=":A3_0" function="internal">
        <lane id=":A3_0_0" index="0" speed="13.89" length="14.40" shape="-1.60,907.20 -1.60,892.80"/>
    </edge>
    <edge id=":A3_1" function="internal">
        <lane id=":A3_1_0" index="0" speed="8.00" length="5.93" shape="-1.60,907.20 -1.05,903.35 0.00,901.60"/>
    </edge>
    <edge id=":A3_6" function="internal">
        <lane id=":A3_6_0" index="0" speed="8.00" length="8.26" shape="0.00,901.60 0.60,900.60 3.35,898.95 7.20,898.40"/>
    </edge>
    <edge id=":A3_2" function="internal">
        <lane id=":A3_2_0" index="0" speed="6.51" length="9.03" shape="7.20,901.60 4.75,901.95 3.00,903.00 1.95,904.75 1.60,907.20"/>
    </edge>
    <edge id=":A3_3" function="internal">
        <lane id=":A3_3_0" index="0" speed="8.00" length="14.19" shape="7.20,901.60 3.35,901.05 0.60,899.40 -1.05,896.65 -1.60,892.80"/>
    </edge>
    <edge id=":A3_4" function="internal">
        <lane id=":A3_4_0" index="0" speed="6.51" length="9.03" shape="1.60,892.80 1.95,895.25 3.00,897.00 4.75,898.05 7.20,898.40"/>
    </edge>
    <edge id=":A3_5" function="internal">
        <lane id=":A3_5_0" index="0" speed="13.89" length="14.40" shape="1.60,892.80 1.60,907.20"/>
    </edge>
    <edge id=":A4_0" function="internal">
        <lane id=":A4_0_0" index="0" speed="13.89" length="14.40" shape="-1.60,1207.20 -1.60,1192.80"/>
    </edge>
    <edge id=":A4_1" function="internal">
        <lane id=":A4_1_0" index="0" speed="8.00" length="5.93" shape="-1.60,1207.20 -1.05,1203.35 0.00,1201.60"/>
    </edge>
    <edge id=":A4_6" function="internal">
        <lane id=":A4_6_0" index="0" speed="8.00" length="8.26" shape="0.00,1201.60 0.60,1200.60 3.35,1198.95 7.20,1198.40"/>
    </edge>
    <edge id=":A4_2" function="internal">
        <lane id=":A4_2_0" index="0" speed="6.51" length="9.03" shape="7.20,1201.60 4.75,1201.95 3.00,1203.00 1.95,1204.75 1.60,1207.20"/>
    </edge>
    <edge id=":A4_3" function="internal">
        <lane id=":A4_3_0" index="0" speed="8.00" length="14.19" shape="7.20,1201.60 3.35,1201.05 0.60,1199.40 -1.05,1196.65 -1.60,1192.80"/>
    </edge>
    <edge id=":A4_4" function="internal">
        <lane id=":A4_4_0" index="0" speed="6.51" length="9.03" shape="1.60,1192.80 1.95,1195.25 3.00,1197.00 4.75,1198.05 7.20,1198.40"/>
    </edge>
    <edge id=":A4_5" function="internal">
        <lane id=":A4_5_0" index="0" speed="13.89" length="14.40" shape="1.60,1192.80 1.60,1207.20"/>
    </edge>
    <edge id=":A5_0" function="internal">
        <lane id=":A5_0_0" index="0" speed="13.89" length="14.40" shape="-1.60,1507.20 -1.60,1492.80"/>
    </edge>
    <edge id=":A5_1" function="internal">
        <lane id=":A5_1_0" index="0" speed="8.00" length="5.93" shape="-1.60,1507.20 -1.05,1503.35 0.00,1501.60"/>
    </edge>
    <edge id=":A5_6" function="internal">
        <lane id=":A5_6_0" index="0" speed="8.00" length="8.26" shape="0.00,1501.60 0.60,1500.60 3.35,1498.95 7.20,1498.40"/>
    </edge>
    <edge id=":A5_2" function="internal">
        <lane id=":A5_2_0" index="0" speed="6.51" length="9.03" shape="7.20,1501.60 4.75,1501.95 3.00,1503.00 1.95,1504.75 1.60,1507.20"/>
    </edge>
    <edge id=":A5_3" function="internal">
        <lane id=":A5_3_0" index="0" speed="8.00" length="14.19" shape="7.20,1501.60 3.35,1501.05 0.60,1499.40 -1.05,1496.65 -1.60,1492.80"/>
    </edge>
    <edge id=":A5_4" function="internal">
        <lane id=":A5_4_0" index="0" speed="6.51" length="9.03" shape="1.60,1492.80 1.95,1495.25 3.00,1497.00 4.75,1498.05 7.20,1498.40"/>
    </edge>
    <edge id=":A5_5" function="internal">
        <lane id=":A5_5_0" index="0" speed="13.89" length="14.40" shape="1.60,1492.80 1.60,1507.20"/>
    </edge>
    <edge id=":A6_0" function="internal">
        <lane id=":A6_0_0" index="0" speed="13.89" length="14.40" shape="-1.60,1807.20 -1.60,1792.80"/>
    </edge>
    <edge id=":A6_1" function="internal">
        <lane id=":A6_1_0" index="0" speed="8.00" length="5.93" shape="-1.60,1807.20 -1.05,1803.35 0.00,1801.60"/>
    </edge>
    <edge id=":A6_6" function="internal">
        <lane id=":A6_6_0" index="0" speed="8.00" length="8.26" shape="0.00,1801.60 0.60,1800.60 3.35,1798.95 7.20,1798.40"/>
    </edge>
    <edge id=":A6_2" function="internal">
        <lane id=":A6_2_0" index="0" speed="6.51" length="9.03" shape="7.20,1801.60 4.75,1801.95 3.00,1803.00 1.95,1804.75 1.60,1807.20"/>
    </edge>
    <edge id=":A6_3" function="internal">
        <lane id=":A6_3_0" index="0" speed="8.00" length="14.19" shape="7.20,1801.60 3.35,1801.05 0.60,1799.40 -1.05,1796.65 -1.60,1792.80"/>
    </edge>
    <edge id=":A6_4" function="internal">
        <lane id=":A6_4_0" index="0" speed="6.51" length="9.03" shape="1.60,1792.80 1.95,1795.25 3.00,1797.00 4.75,1798.05 7.20,1798.40"/>
    </edge>
    <edge id=":A6_5" function="internal">
        <lane id=":A6_5_0" index="0" speed="13.89" length="14.40" shape="1.60,1792.80 1.60,1807.20"/>
    </edge>
    <edge id=":A7_0" function="internal">
        <lane id=":A7_0_0" index="0" speed="13.89" length="14.40" shape="-1.60,2107.20 -1.60,2092.80"/>
    </edge>
    <edge id=":A7_1" function="internal">
        <lane id=":A7_1_0" index="0" speed="8.00" length="5.93" shape="-1.60,2107.20 -1.05,2103.35 0.00,2101.60"/>
    </edge>
    <edge id=":A7_6" function="internal">
        <lane id=":A7_6_0" index="0" speed="8.00" length="8.26" shape="0.00,2101.60 0.60,2100.60 3.35,2098.95 7.20,2098.40"/>
    </edge>
    <edge id=":A7_2" function="internal">
        <lane id=":A7_2_0" index="0" speed="6.51" length="9.03" shape="7.20,2101.60 4.75,2101.95 3.00,2103.00 1.95,2104.75 1.60,2107.20"/>
    </edge>
    <edge id=":A7_3" function="internal">
        <lane id=":A7_3_0" index="0" speed="8.00" length="14.19" shape="7.20,2101.60 3.35,2101.05 0.60,2099.40 -1.05,2096.65 -1.60,2092.80"/>
    </edge>
    <edge id=":A7_4" function="internal">
        <lane id=":A7_4_0" index="0" speed="6.51" length="9.03" shape="1.60,2092.80 1.95,2095.25 3.00,2097.00 4.75,2098.05 7.20,2098.40"/>
    </edge>
    <edge id=":A7_5" function="internal">
        <lane id=":A7_5_0" index="0" speed="13.89" length="14.40" shape="1.60,2092.80 1.60,2107.20"/>
    </edge>
    <edge id=":A8_0" function="internal">
        <lane id=":A8_0_0" index="0" speed="13.89" length="14.40" shape="-1.60,2407.20 -1.60,2392.80"/>
    </edge>
    <edge id=":A8_1" function="internal">
        <lane id=":A8_1_0" index="0" speed="8.00" length="5.93" shape="-1.60,2407.20 -1.05,2403.35 0.00,2401.60"/>
    </edge>
    <edge id=":A8_6" function="internal">
        <lane id=":A8_6_0" index="0" speed="8.00" length="8.26" shape="0.00,2401.60 0.60,2400.60 3.35,2398.95 7.20,2398.40"/>
    </edge>
    <edge id=":A8_2" function="internal">
        <lane id=":A8_2_0" index="0" speed="6.51" length="9.03" shape="7.20,2401.60 4.75,2401.95 3.00,2403.00 1.95,2404.75 1.60,2407.20"/>
    </edge>
    <edge id=":A8_3" function="internal">
        <lane id=":A8_3_0" index="0" speed="8.00" length="14.19" shape="7.20,2401.60 3.35,2401.05 0.60,2399.40 -1.05,2396.65 -1.60,2392.80"/>
    </edge>
    <edge id=":A8_4" function="internal">
        <lane id=":A8_4_0" index="0" speed="6.51" length="9.03" shape="1.60,2392.80 1.95,2395.25 3.00,2397.00 4.75,2398.05 7.20,2398.40"/>
    </edge>
    <edge id=":A8_5" function="internal">
        <lane id=":A8_5_0" index="0" speed="13.89" length="14.40" shape="1.60,2392.80 1.60,2407.20"/>
    </edge>
    <edge id=":A9_0" function="internal">
        <lane id=":A9_0_0" index="0" speed="6.08" length="7.74" shape="3.20,2701.60 1.10,2701.30 -0.40,2700.40 -1.30,2698.90 -1.60,2696.80"/>
    </edge>
    <edge id=":A9_1" function="internal">
        <lane id=":A9_1_0" index="0" speed="3.90" length="2.58" shape="1.60,2696.80 1.70,2697.50 2.00,2698.00 2.50,2698.30 3.20,2698.40"/>
    </edge>
    <edge id=":B0_0" function="internal">
        <lane id=":B0_0_0" index="0" speed="6.51" length="9.03" shape="298.40,7.20 298.05,4.75 297.00,3.00 295.25,1.95 292.80,1.60"/>
    </edge>
    <edge id=":B0_1" function="internal">
        <lane id=":B0_1_0" index="0" speed="8.00" length="14.19" shape="298.40,7.20 298.95,3.35 300.60,0.60 303.35,-1.05 307.20,-1.60"/>
    </edge>
    <edge id=":B0_2" function="internal">
        <lane id=":B0_2_0" index="0" speed="6.51" length="9.03" shape="307.20,1.60 304.75,1.95 303.00,3.00 301.95,4.75 301.60,7.20"/>
    </edge>
    <edge id=":B0_3" function="internal">
        <lane id=":B0_3_0" index="0" speed="13.89" length="14.40" shape="307.20,1.60 292.80,1.60"/>
    </edge>
    <edge id=":B0_4" function="internal">
        <lane id=":B0_4_0" index="0" speed="13.89" length="14.40" shape="292.80,-1.60 307.20,-1.60"/>
    </edge>
    <edge id=":B0_5" function="internal">
        <lane id=":B0_5_0" index="0" speed="8.00" length="5.93" shape="292.80,-1.60 296.65,-1.05 298.40,-0.00"/>
    </edge>
    <edge id=":B0_6" function="internal">
        <lane id=":B0_6_0" index="0" speed="8.00" length="8.26" shape="298.40,-0.00 299.40,0.60 301.05,3.35 301.60,7.20"/>
    </edge>
    <edge id=":B1_0" function="internal">
        <lane id=":B1_0_0" index="0" speed="6.51" length="9.03" shape="298.40,307.20 298.05,304.75 297.00,303.00 295.25,301.95 292.80,301.60"/>
    </edge>
    <edge id=":B1_1" function="internal">
        <lane id=":B1_1_0" index="0" speed="13.89" length="14.40" shape="298.40,307.20 298.40,292.80"/>
    </edge>
    <edge id=":B1_2" function="internal">
        <lane id=":B1_2_0" index="0" speed="8.00" length="5.93" shape="298.40,307.20 298.95,303.35 300.00,301.60"/>
    </edge>
    <edge id=":B1_12" function="internal">
        <lane id=":B1_12_0" index="0" speed="8.00" length="8.26" shape="300.00,301.60 300.60,300.60 303.35,298.95 307.20,298.40"/>
    </edge>
    <edge id=":B1_3" function="internal">
        <lane id=":B1_3_0" index="0" speed="6.51" length="9.03" shape="307.20,301.60 304.75,301.95 303.00,303.00 301.95,304.75 301.60,307.20"/>
    </edge>
    <edge id=":B1_4" function="internal">
        <lane id=":B1_4_0" index="0" speed="13.89" length="14.40" shape="307.20,301.60 292.80,301.60"/>
    </edge>
    <edge id=":B1_5" function="internal">
        <lane id=":B1_5_0" index="0" speed="8.00" length="14.19" shape="307.20,301.60 303.35,301.05 300.60,299.40 298.95,296.65 298.40,292.80"/>
    </edge>
    <edge id=":B1_6" function="internal">
        <lane id=":B1_6_0" index="0" speed="6.51" length="9.03" shape="301.60,292.80 301.95,295.25 303.00,297.00 304.75,298.05 307.20,298.40"/>
    </edge>
    <edge id=":B1_7" function="internal">
        <lane id=":B1_7_0" index="0" speed="13.89" length="14.40" shape="301.60,292.80 301.60,307.20"/>
    </edge>
    <edge id=":B1_8" function="internal">
        <lane id=":B1_8_0" index="0" speed="8.00" length="5.93" shape="301.60,292.80 301.05,296.65 300.00,298.40"/>
    </edge>
    <edge id=":B1_13" function="internal">
        <lane id=":B1_13_0" index="0" speed="8.00" length="8.26" shape="300.00,298.40 299.40,299.40 296.65,301.05 292.80,301.60"/>
    </edge>
    <edge id=":B1_9" function="internal">
        <lane id=":B1_9_0" index="0" speed="6.51" length="9.03" shape="292.80,298.40 295.25,298.05 297.00,297.00 298.05,295.25 298.40,292.80"/>
    </edge>
    <edge id=":B1_10" function="internal">
        <lane id=":B1_10_0" index="0" speed="13.89" length="14.40" shape="292.80,298.40 307.20,298.40"/>
    </edge>
    <edge id=":B1_11" function="internal">
        <lane id=":B1_11_0" index="0" speed="8.00" length="14.19" shape="292.80,298.40 296.65,298.95 299.40,300.60 301.05,303.35 301.60,307.20"/>
    </edge>
    <edge id=":B2_0" function="internal">
        <lane id=":B2_0_0" index="0" speed="6.51" length="9.03" shape="298.40,607.20 298.05,604.75 297.00,603.00 295.25,601.95 292.80,601.60"/>
    </edge>
    <edge id=":B2_1" function="internal">
        <lane id=":B2_1_0" index="0" speed="13.89" length="14.40" shape="298.40,607.20 298.40,592.80"/>
    </edge>
    <edge id=":B2_2" function="internal">
        <lane id=":B2_2_0" index="0" speed="8.00" length="5.93" shape="298.40,607.20 298.95,603.35 300.00,601.60"/>
    </edge>
    <edge id=":B2_12" function="internal">
        <lane id=":B2_12_0" index="0" speed="8.00" length="8.26" shape="300.00,601.60 300.60,600.60 303.35,598.95 307.20,598.40"/>
    </edge>
    <edge id=":B2_3" function="internal">
        <lane id=":B2_3_0" index="0" speed="6.51" length="9.03" shape="307.20,601.60 304.75,601.95 303.00,603.00 301.95,604.75 301.60,607.20"/>
    </edge>
    <edge id=":B2_4" function="internal">
        <lane id=":B2_4_0" index="0" speed="13.89" length="14.40" shape="307.20,601.60 292.80,601.60"/>
    </edge>
    <edge id=":B2_5" function="internal">
        <lane id=":B2_5_0" index="0" speed="8.00" length="14.19" shape="307.20,601.60 303.35,601.05 300.60,599.40 298.95,596.65 298.40,592.80"/>
    </edge>
    <edge id=":B2_6" function="internal">
        <lane id=":B2_6_0" index="0" speed="6.51" length="9.03" shape="301.60,592.80 301.95,595.25 303.00,597.00 304.75,598.05 307.20,598.40"/>
    </edge>
    <edge id=":B2_7" function="internal">
        <lane id=":B2_7_0" index="0" speed="13.89" length="14.40" shape="301.60,592.80 301.60,607.20"/>
    </edge>
    <edge id=":B2_8" function="internal">
        <lane id=":B2_8_0" index="0" speed="8.00" length="5.93" shape="301.60,592.80 301.05,596.65 300.00,598.40"/>
    </edge>
    <edge id=":B2_13" function="internal">
        <lane id=":B2_13_0" index="0" speed="8.00" length="8.26" shape="300.00,598.40 299.40,599.40 296.65,601.05 292.80,601.60"/>
    </edge>
    <edge id=":B2_9" function="internal">
        <lane id=":B2_9_0" index="0" speed="6.51" length="9.03" shape="292.80,598.40 295.25,598.05 297.00,597.00 298.05,595.25 298.40,592.80"/>
    </edge>
    <edge id=":B2_10" function="internal">
        <lane id=":B2_10_0" index="0" speed="13.89" length="14.40" shape="292.80,598.40 307.20,598.40"/>
    </edge>
    <edge id=":B2_11" function="internal">
        <lane id=":B2_11_0" index="0" speed="8.00" length="14.19" shape="292.80,598.40 296.65,598.95 299.40,600.60 301.05,603.35 301.60,607.20"/>
    </edge>
    <edge id=":B3_0" function="internal">
        <lane id=":B3_0_0" index="0" speed="6.51" length="9.03" shape="298.40,907.20 298.05,904.75 297.00,903.00 295.25,901.95 292.80,901.60"/>
    </edge>
    <edge id=":B3_1" function="internal">
        <lane id=":B3_1_0" index="0" speed="13.89" length="14.40" shape="298.40,907.20 298.40,892.80"/>
    </edge>
    <edge id=":B3_2" function="internal">
        <lane id=":B3_2_0" index="0" speed="8.00" length="5.93" shape="298.40,907.20 298.95,903.35 300.00,901.60"/>
    </edge>
    <edge id=":B3_12" function="internal">
        <lane id=":B3_12_0" index="0" speed="8.00" length="8.26" shape="300.00,901.60 300.60,900.60 303.35,898.95 307.20,898.40"/>
    </edge>
    <edge id=":B3_3" function="internal">
        <lane id=":B3_3_0" index="0" speed="6.51" length="9.03" shape="307.20,901.60 304.75,901.95 303.00,903.00 301.95,904.75 301.60,907.20"/>
    </edge>
    <edge id=":B3_4" function="internal">
        <lane id=":B3_4_0" index="0" speed="13.89" length="14.40" shape="307.20,901.60 292.80,901.60"/>
    </edge>
    <edge id=":B3_5" function="internal">
        <lane id=":B3_5_0" index="0" speed="8.00" length="14.19" shape="307.20,901.60 303.35,901.05 300.60,899.40 298.95,896.65 298.40,892.80"/>
    </edge>
    <edge id=":B3_6" function="internal">
        <lane id=":B3_6_0" index="0" speed="6.51" length="9.03" shape="301.60,892.80 301.95,895.25 303.00,897.00 304.75,898.05 307.20,898.40"/>
    </edge>
    <edge id=":B3_7" function="internal">
        <lane id=":B3_7_0" index="0" speed="13.89" length="14.40" shape="301.60,892.80 301.60,907.20"/>
    </edge>
    <edge id=":B3_8" function="internal">
        <lane id=":B3_8_0" index="0" speed="8.00" length="5.93" shape="301.60,892.80 301.05,896.65 300.00,898.40"/>
    </edge>
    <edge id=":B3_13" function="internal">
        <lane id=":B3_13_0" index="0" speed="8.00" length="8.26" shape="300.00,898.40 299.40,899.40 296.65,901.05 292.80,901.60"/>
    </edge>
    <edge id=":B3_9" function="internal">
        <lane id=":B3_9_0" index="0" speed="6.51" length="9.03" shape="292.80,898.40 295.25,898.05 297.00,897.00 298.05,895.25 298.40,892.80"/>
    </edge>
    <edge id=":B3_10" function="internal">
        <lane id=":B3_10_0" index="0" speed="13.89" length="14.40" shape="292.80,898.40 307.20,898.40"/>
    </edge>
    <edge id=":B3_11" function="internal">
        <lane id=":B3_11_0" index="0" speed="8.00" length="14.19" shape="292.80,898.40 296.65,898.95 299.40,900.60 301.05,903.35 301.60,907.20"/>
    </edge>
    <edge id=":B4_0" function="internal">
        <lane id=":B4_0_0" index="0" speed="6.51" length="9.03" shape="298.40,1207.20 298.05,1204.75 297.00,1203.00 295.25,1201.95 292.80,1201.60"/>
    </edge>
    <edge id=":B4_1" function="internal">
        <lane id=":B4_1_0" index="0" speed="13.89" length="14.40" shape="298.40,1207.20 298.40,1192.80"/>
    </edge>
    <edge id=":B4_2" function="internal">
        <lane id=":B4_2_0" index="0" speed="8.00" length="5.93" shape="298.40,1207.20 298.95,1203.35 300.00,1201.60"/>
    </edge>
    <edge id=":B4_12" function="internal">
        <lane id=":B4_12_0" index="0" speed="8.00" length="8.26" shape="300.00,1201.60 300.60,1200.60 303.35,1198.95 307.20,1198.40"/>
    </edge>
    <edge id=":B4_3" function="internal">
        <lane id=":B4_3_0" index="0" speed="6.51" length="9.03" shape="307.20,1201.60 304.75,1201.95 303.00,1203.00 301.95,1204.75 301.60,1207.20"/>
    </edge>
    <edge id=":B4_4" function="internal">
        <lane id=":B4_4_0" index="0" speed="13.89" length="14.40" shape="307.20,1201.60 292.80,1201.60"/>
    </edge>
    <edge id=":B4_5" function="internal">
        <lane id=":B4_5_0" index="0" speed="8.00" length="14.19" shape="307.20,1201.60 303.35,1201.05 300.60,1199.40 298.95,1196.65 298.40,1192.80"/>
    </edge>
    <edge id=":B4_6" function="internal">
        <lane id=":B4_6_0" index="0" speed="6.51" length="9.03" shape="301.60,1192.80 301.95,1195.25 303.00,1197.00 304.75,1198.05 307.20,1198.40"/>
    </edge>
    <edge id=":B4_7" function="internal">
        <lane id=":B4_7_0" index="0" speed="13.89" length="14.40" shape="301.60,1192.80 301.60,1207.20"/>
    </edge>
    <edge id=":B4_8" function="internal">
        <lane id=":B4_8_0" index="0" speed="8.00" length="5.93" shape="301.60,1192.80 301.05,1196.65 300.00,1198.40"/>
    </edge>
    <edge id=":B4_13" function="internal">
        <lane id=":B4_13_0" index="0" speed="8.00" length="8.26" shape="300.00,1198.40 299.40,1199.40 296.65,1201.05 292.80,1201.60"/>
    </edge>
    <edge id=":B4_9" function="internal">
        <lane id=":B4_9_0" index="0" speed="6.51" length="9.03" shape="292.80,1198.40 295.25,1198.05 297.00,1197.00 298.05,1195.25 298.40,1192.80"/>
    </edge>
    <edge id=":B4_10" function="internal">
        <lane id=":B4_10_0" index="0" speed="13.89" length="14.40" shape="292.80,1198.40 307.20,1198.40"/>
    </edge>
    <edge id=":B4_11" function="internal">
        <lane id=":B4_11_0" index="0" speed="8.00" length="14.19" shape="292.80,1198.40 296.65,1198.95 299.40,1200.60 301.05,1203.35 301.60,1207.20"/>
    </edge>
    <edge id=":B5_0" function="internal">
        <lane id=":B5_0_0" index="0" speed="6.51" length="9.03" shape="298.40,1507.20 298.05,1504.75 297.00,1503.00 295.25,1501.95 292.80,1501.60"/>
    </edge>
    <edge id=":B5_1" function="internal">
        <lane id=":B5_1_0" index="0" speed="13.89" length="14.40" shape="298.40,1507.20 298.40,1492.80"/>
    </edge>
    <edge id=":B5_2" function="internal">
        <lane id=":B5_2_0" index="0" speed="8.00" length="5.93" shape="298.40,1507.20 298.95,1503.35 300.00,1501.60"/>
    </edge>
    <edge id=":B5_12" function="internal">
        <lane id=":B5_12_0" index="0" speed="8.00" length="8.26" shape="300.00,1501.60 300.60,1500.60 303.35,1498.95 307.20,1498.40"/>
    </edge>
    <edge id=":B5_3" function="internal">
        <lane id=":B5_3_0" index="0" speed="6.51" length="9.03" shape="307.20,1501.60 304.75,1501.95 303.00,1503.00 301.95,1504.75 301.60,1507.20"/>
    </edge>
    <edge id=":B5_4" function="internal">
        <lane id=":B5_4_0" index="0" speed="13.89" length="14.40" shape="307.20,1501.60 292.80,1501.60"/>
    </edge>
    <edge id=":B5_5" function="internal">
        <lane id=":B5_5_0" index="0" speed="8.00" length="14.19" shape="307.20,1501.60 303.35,1501.05 300.60,1499.40 298.95,1496.65 298.40,1492.80"/>
    </edge>
    <edge id=":B5_6" function="internal">
        <lane id=":B5_6_0" index="0" speed="6.51" length="9.03" shape="301.60,1492.80 301.95,1495.25 303.00,1497.00 304.75,1498.05 307.20,1498.40"/>
    </edge>
    <edge id=":B5_7" function="internal">
        <lane id=":B5_7_0" index="0" speed="13.89" length="14.40" shape="301.60,1492.80 301.60,1507.20"/>
    </edge>
    <edge id=":B5_8" function="internal">
        <lane id=":B5_8_0" index="0" speed="8.00" length="5.93" shape="301.60,1492.80 301.05,1496.65 300.00,1498.40"/>
    </edge>
    <edge id=":B5_13" function="internal">
        <lane id=":B5_13_0" index="0" speed="8.00" length="8.26" shape="300.00,1498.40 299.40,1499.40 296.65,1501.05 292.80,1501.60"/>
    </edge>
    <edge id=":B5_9" function="internal">
        <lane id=":B5_9_0" index="0" speed="6.51" length="9.03" shape="292.80,1498.40 295.25,1498.05 297.00,1497.00 298.05,1495.25 298.40,1492.80"/>
    </edge>
    <edge id=":B5_10" function="internal">
        <lane id=":B5_10_0" index="0" speed="13.89" length="14.40" shape="292.80,1498.40 307.20,1498.40"/>
    </edge>
    <edge id=":B5_11" function="internal">
        <lane id=":B5_11_0" index="0" speed="8.00" length="14.19" shape="292.80,1498.40 296.65,1498.95 299.40,1500.60 301.05,1503.35 301.60,1507.20"/>
    </edge>
    <edge id=":B6_0" function="internal">
        <lane id=":B6_0_0" index="0" speed="6.51" length="9.03" shape="298.40,1807.20 298.05,1804.75 297.00,1803.00 295.25,1801.95 292.80,1801.60"/>
    </edge>
    <edge id=":B6_1" function="internal">
        <lane id=":B6_1_0" index="0" speed="13.89" length="14.40" shape="298.40,1807.20 298.40,1792.80"/>
    </edge>
    <edge id=":B6_2" function="internal">
        <lane id=":B6_2_0" index="0" speed="8.00" length="5.93" shape="298.40,1807.20 298.95,1803.35 300.00,1801.60"/>
    </edge>
    <edge id=":B6_12" function="internal">
        <lane id=":B6_12_0" index="0" speed="8.00" length="8.26" shape="300.00,1801.60 300.60,1800.60 303.35,1798.95 307.20,1798.40"/>
    </edge>
    <edge id=":B6_3" function="internal">
        <lane id=":B6_3_0" index="0" speed="6.51" length="9.03" shape="307.20,1801.60 304.75,1801.95 303.00,1803.00 301.95,1804.75 301.60,1807.20"/>
    </edge>
    <edge id=":B6_4" function="internal">
        <lane id=":B6_4_0" index="0" speed="13.89" length="14.40" shape="307.20,1801.60 292.80,1801.60"/>
    </edge>
    <edge id=":B6_5" function="internal">
        <lane id=":B6_5_0" index="0" speed="8.00" length="14.19" shape="307.20,1801.60 303.35,1801.05 300.60,1799.40 298.95,1796.65 298.40,1792.80"/>
    </edge>
    <edge id=":B6_6" function="internal">
        <lane id=":B6_6_0" index="0" speed="6.51" length="9.03" shape="301.60,1792.80 301.95,1795.25 303.00,1797.00 304.75,1798.05 307.20,1798.40"/>
    </edge>
    <edge id=":B6_7" function="internal">
        <lane id=":B6_7_0" index="0" speed="13.89" length="14.40" shape="301.60,1792.80 301.60,1807.20"/>
    </edge>
    <edge id=":B6_8" function="internal">
        <lane id=":B6_8_0" index="0" speed="8.00" length="5.93" shape="301.60,1792.80 301.05,1796.65 300.00,1798.40"/>
    </edge>
    <edge id=":B6_13" function="internal">
        <lane id=":B6_13_0" index="0" speed="8.00" length="8.26" shape="300.00,1798.40 299.40,1799.40 296.65,1801.05 292.80,1801.60"/>
    </edge>
    <edge id=":B6_9" function="internal">
        <lane id=":B6_9_0" index="0" speed="6.51" length="9.03" shape="292.80,1798.40 295.25,1798.05 297.00,1797.00 298.05,1795.25 298.40,1792.80"/>
    </edge>
    <edge id=":B6_10" function="internal">
        <lane id=":B6_10_0" index="0" speed="13.89" length="14.40" shape="292.80,1798.40 307.20,1798.40"/>
    </edge>
    <edge id=":B6_11" function="internal">
        <lane id=":B6_11_0" index="0" speed="8.00" length="14.19" shape="292.80,1798.40 296.65,1798.95 299.40,1800.60 301.05,1803.35 301.60,1807.20"/>
    </edge>
    <edge id=":B7_0" function="internal">
        <lane id=":B7_0_0" index="0" speed="6.51" length="9.03" shape="298.40,2107.20 298.05,2104.75 297.00,2103.00 295.25,2101.95 292.80,2101.60"/>
    </edge>
    <edge id=":B7_1" function="internal">
        <lane id=":B7_1_0" index="0" speed="13.89" length="14.40" shape="298.40,2107.20 298.40,2092.80"/>
    </edge>
    <edge id=":B7_2" function="internal">
        <lane id=":B7_2_0" index="0" speed="8.00" length="5.93" shape="298.40,2107.20 298.95,2103.35 300.00,2101.60"/>
    </edge>
    <edge id=":B7_12" function="internal">
        <lane id=":B7_12_0" index="0" speed="8.00" length="8.26" shape="300.00,2101.60 300.60,2100.60 303.35,2098.95 307.20,2098.40"/>
    </edge>
    <edge id=":B7_3" function="internal">
        <lane id=":B7_3_0" index="0" speed="6.51" length="9.03" shape="307.20,2101.60 304.75,2101.95 303.00,2103.00 301.95,2104.75 301.60,2107.20"/>
    </edge>
    <edge id=":B7_4" function="internal">
        <lane id=":B7_4_0" index="0" speed="13.89" length="14.40" shape="307.20,2101.60 292.80,2101.60"/>
    </edge>
    <edge id=":B7_5" function="internal">
        <lane id=":B7_5_0" index="0" speed="8.00" length="14.19" shape="307.20,2101.60 303.35,2101.05 300.60,2099.40 298.95,2096.65 298.40,2092.80"/>
    </edge>
    <edge id=":B7_6" function="internal">
        <lane id=":B7_6_0" index="0" speed="6.51" length="9.03" shape="301.60,2092.80 301.95,2095.25 303.00,2097.00 304.75,2098.05 307.20,2098.40"/>
    </edge>
    <edge id=":B7_7" function="internal">
        <lane id=":B7_7_0" index="0" speed="13.89" length="14.40" shape="301.60,2092.80 301.60,2107.20"/>
    </edge>
    <edge id=":B7_8" function="internal">