<?xml version='1.0' encoding='UTF-8'?>
<additional><poly id="j0" type="nodeBox" color="255,0,0" layer="0" shape="-100.0,-100.0 100.0,-100.0 100.0,100.0 -100.0,100.0" /><poly id="j1" type="nodeBox" color="255,0,0" layer="0" shape="-100.0,200.0 100.0,200.0 100.0,400.0 -100.0,400.0" /><poly id="j2" type="nodeBox" color="255,0,0" layer="0" shape="-100.0,2900.0 100.0,2900.0 100.0,3100.0 -100.0,3100.0" /><poly id="j3" type="nodeBox" color="255,0,0" layer="0" shape="-100.0,500.0 100.0,500.0 100.0,700.0 -100.0,700.0" /><poly id="j4" type="nodeBox" color="255,0,0" layer="0" shape="-100.0,800.0 100.0,800.0 100.0,1000.0 -100.0,1000.0" /><poly id="j5" type="nodeBox" color="255,0,0" layer="0" shape="-100.0,1100.0 100.0,1100.0 100.0,1300.0 -100.0,1300.0" /><poly id="j6" type="nodeBox" color="255,0,0" layer="0" shape="-100.0,1400.0 100.0,1400.0 100.0,1600.0 -100.0,1600.0" /><poly id="j7" type="nodeBox" color="255,0,0" layer="0" shape="-100.0,1700.0 100.0,1700.0 100.0,1900.0 -100.0,1900.0" /><poly id="j8" type="nodeBox" color="255,0,0" layer="0" shape="-100.0,2000.0 100.0,2000.0 100.0,2200.0 -100.0,2200.0" /><poly id="j9" type="nodeBox" color="255,0,0" layer="0" shape="-100.0,2300.0 100.0,2300.0 100.0,2500.0 -100.0,2500.0" /><poly id="j10" type="nodeBox" color="255,0,0" layer="0" shape="-100.0,2600.0 100.0,2600.0 100.0,2800.0 -100.0,2800.0" /><poly id="j11" type="nodeBox" color="255,0,0" layer="0" shape="200.0,-100.0 400.0,-100.0 400.0,100.0 200.0,100.0" /><poly id="j12" type="nodeBox" color="255,0,0" layer="0" shape="200.0,200.0 400.0,200.0 400.0,400.0 200.0,400.0" /><poly id="j13" type="nodeBox" color="255,0,0" layer="0" shape="200.0,2900.0 400.0,2900.0 400.0,3100.0 200.0,3100.0" /><poly id="j14" type="nodeBox" color="255,0,0" layer="0" shape="200.0,500.0 400.0,500.0 400.0,700.0 200.0,700.0" /><poly id="j15" type="nodeBox" color="255,0,0" layer="0" shape="200.0,800.0 400.0,800.0 400.0,1000.0 200.0,1000.0" /><poly id="j16" type="nodeBox" color="255,0,0" layer="0" shape="200.0,1100.0 400.0,1100.0 400.0,1300.0 200.0,1300.0" /><poly id="j17" type="nodeBox" color="255,0,0" layer="0" shape="200.0,1400.0 400.0,1400.0 400.0,1600.0 200.0,1600.0" /><poly id="j18" type="nodeBox" color="255,0,0" layer="0" shape="200.0,1700.0 400.0,1700.0 400.0,1900.0 200.0,1900.0" /><poly id="j19" type="nodeBox" color="255,0,0" layer="0" shape="200.0,2000.0 400.0,2000.0 400.0,2200.0 200.0,2200.0" /><poly id="j20" type="nodeBox" color="255,0,0" layer="0" shape="200.0,2300.0 400.0,2300.0 400.0,2500.0 200.0,2500.0" /><poly id="j21" type="nodeBox" color="255,0,0" layer="0" shape="200.0,2600.0 400.0,2600.0 400.0,2800.0 200.0,2800.0" /><poly id="j22" type="nodeBox" color="255,0,0" layer="0" shape="500.0,-100.0 700.0,-100.0 700.0,100.0 500.0,100.0" /><poly id="j23" type="nodeBox" color="255,0,0" layer="0" shape="500.0,200.0 700.0,200.0 700.0,400.0 500.0,400.0" /><poly id="j24" type="nodeBox" color="255,0,0" layer="0" shape="500.0,2900.0 700.0,2900.0 700.0,3100.0 500.0,3100.0" /><poly id="j25" type="nodeBox" color="255,0,0" layer="0" shape="500.0,500.0 700.0,500.0 700.0,700.0 500.0,700.0" /><poly id="j26" type="nodeBox" color="255,0,0" layer="0" shape="500.0,800.0 700.0,800.0 700.0,1000.0 500.0,1000.0" /><poly id="j27" type="nodeBox" color="255,0,0" layer="0" shape="500.0,1100.0 700.0,1100.0 700.0,1300.0 500.0,1300.0" /><poly id="j28" type="nodeBox" color="255,0,0" layer="0" shape="500.0,1400.0 700.0,1400.0 700.0,1600.0 500.0,1600.0" /><poly id="j29" type="nodeBox" color="255,0,0" layer="0" shape="500.0,1700.0 700.0,1700.0 700.0,1900.0 500.0,1900.0" /><poly id="j30" type="nodeBox" color="255,0,0" layer="0" shape="500.0,2000.0 700.0,2000.0 700.0,2200.0 500.0,2200.0" /><poly id="j31" type="nodeBox" color="255,0,0" layer="0" shape="500.0,2300.0 700.0,2300.0 700.0,2500.0 500.0,2500.0" /><poly id="j32" type="nodeBox" color="255,0,0" layer="0" shape="500.0,2600.0 700.0,2600.0 700.0,2800.0 500.0,2800.0" /><poly id="j33" type="nodeBox" color="255,0,0" layer="0" shape="800.0,-100.0 1000.0,-100.0 1000.0,100.0 800.0,100.0" /><poly id="j34" type="nodeBox" color="255,0,0" layer="0" shape="800.0,200.0 1000.0,200.0 1000.0,400.0 800.0,400.0" /><poly id="j35" type="nodeBox" color="255,0,0" layer="0" shape="800.0,2900.0 1000.0,2900.0 1000.0,3100.0 800.0,3100.0" /><poly id="j36" type="nodeBox" color="255,0,0" layer="0" shape="800.0,500.0 1000.0,500.0 1000.0,700.0 800.0,700.0" /><poly id="j37" type="nodeBox" color="255,0,0" layer="0" shape="800.0,800.0 1000.0,800.0 1000.0,1000.0 800.0,1000.0" /><poly id="j38" type="nodeBox" color="255,0,0" layer="0" shape="800.0,1100.0 1000.0,1100.0 1000.0,1300.0 800.0,1300.0" /><poly id="j39" type="nodeBox" color="255,0,0" layer="0" shape="800.0,1400.0 1000.0,1400.0 1000.0,1600.0 800.0,1600.0" /><poly id="j40" type="nodeBox" color="255,0,0" layer="0" shape="800.0,1700.0 1000.0,1700.0 1000.0,1900.0 800.0,1900.0" /><poly id="j41" type="nodeBox" color="255,0,0" layer="0" shape="800.0,2000.0 1000.0,2000.0 1000.0,2200.0 800.0,2200.0" /><poly id="j42" type="nodeBox" color="255,0,0" layer="0" shape="800.0,2300.0 1000.0,2300.0 1000.0,2500.0 800.0,2500.0" /><poly id="j43" type="nodeBox" color="255,0,0" layer="0" shape="800.0,2600.0 1000.0,2600.0 1000.0,2800.0 800.0,2800.0" /><poly id="j44" type="nodeBox" color="255,0,0" layer="0" shape="1100.0,-100.0 1300.0,-100.0 1300.0,100.0 1100.0,100.0" /><poly id="j45" type="nodeBox" color="255,0,0" layer="0" shape="1100.0,200.0 1300.0,200.0 1300.0,400.0 1100.0,400.0" /><poly id="j46" type="nodeBox" color="255,0,0" layer="0" shape="1100.0,2900.0 1300.0,2900.0 1300.0,3100.0 1100.0,3100.0" /><poly id="j47" type="nodeBox" color="255,0,0" layer="0" shape="1100.0,500.0 1300.0,500.0 1300.0,700.0 1100.0,700.0" /><poly id="j48" type="nodeBox" color="255,0,0" layer="0" shape="1100.0,800.0 1300.0,800.0 1300.0,1000.0 1100.0,1000.0" /><poly id="j49" type="nodeBox" color="255,0,0" layer="0" shape="1100.0,1100.0 1300.0,1100.0 1300.0,1300.0 1100.0,1300.0" /><poly id="j50" type="nodeBox" color="255,0,0" layer="0" shape="1100.0,1400.0 1300.0,1400.0 1300.0,1600.0 1100.0,1600.0" /><poly id="j51" type="nodeBox" color="255,0,0" layer="0" shape="1100.0,1700.0 1300.0,1700.0 1300.0,1900.0 1100.0,1900.0" /><poly id="j52" type="nodeBox" color="255,0,0" layer="0" shape="1100.0,2000.0 1300.0,2000.0 1300.0,2200.0 1100.0,2200.0" /><poly id="j53" type="nodeBox" color="255,0,0" layer="0" shape="1100.0,2300.0 1300.0,2300.0 1300.0,2500.0 1100.0,2500.0" /><poly id="j54" type="nodeBox" color="255,0,0" layer="0" shape="1100.0,2600.0 1300.0,2600.0 1300.0,2800.0 1100.0,2800.0" /><poly id="j55" type="nodeBox" color="255,0,0" layer="0" shape="1400.0,-100.0 1600.0,-100.0 1600.0,100.0 1400.0,100.0" /><poly id="j56" type="nodeBox" color="255,0,0" layer="0" shape="1400.0,200.0 1600.0,200.0 1600.0,400.0 1400.0,400.0" /><poly id="j57" type="nodeBox" color="255,0,0" layer="0" shape="1400.0,2900.0 1600.0,2900.0 1600.0,3100.0 1400.0,3100.0" /><poly id="j58" type="nodeBox" color="255,0,0" layer="0" shape="1400.0,500.0 1600.0,500.0 1600.0,700.0 1400.0,700.0" /><poly id="j59" type="nodeBox" color="255,0,0" layer="0" shape="1400.0,800.0 1600.0,800.0 1600.0,1000.0 1400.0,1000.0" /><poly id="j60" type="nodeBox" color="255,0,0" layer="0" shape="1400.0,1100.0 1600.0,1100.0 1600.0,1300.0 1400.0,1300.0" /><poly id="j61" type="nodeBox" color="255,0,0" layer="0" shape="1400.0,1400.0 1600.0,1400.0 1600.0,1600.0 1400.0,1600.0" /><poly id="j62" type="nodeBox" color="255,0,0" layer="0" shape="1400.0,1700.0 1600.0,1700.0 1600.0,1900.0 1400.0,1900.0" /><poly id="j63" type="nodeBox" color="255,0,0" layer="0" shape="1400.0,2000.0 1600.0,2000.0 1600.0,2200.0 1400.0,2200.0" /><poly id="j64" type="nodeBox" color="255,0,0" layer="0" shape="1400.0,2300.0 1600.0,2300.0 1600.0,2500.0 1400.0,2500.0" /><poly id="j65" type="nodeBox" color="255,0,0" layer="0" shape="1400.0,2600.0 1600.0,2600.0 1600.0,2800.0 1400.0,2800.0" /><poly id="j66" type="nodeBox" color="255,0,0" layer="0" shape="1700.0,-100.0 1900.0,-100.0 1900.0,100.0 1700.0,100.0" /><poly id="j67" type="nodeBox" color="255,0,0" layer="0" shape="1700.0,200.0 1900.0,200.0 1900.0,400.0 1700.0,400.0" /><poly id="j68" type="nodeBox" color="255,0,0" layer="0" shape="1700.0,2900.0 1900.0,2900.0 1900.0,3100.0 1700.0,3100.0" /><poly id="j69" type="nodeBox" color="255,0,0" layer="0" shape="1700.0,500.0 1900.0,500.0 1900.0,700.0 1700.0,700.0" /><poly id="j70" type="nodeBox" color="255,0,0" layer="0" shape="1700.0,800.0 1900.0,800.0 1900.0,1000.0 1700.0,1000.0" /><poly id="j71" type="nodeBox" color="255,0,0" layer="0" shape="1700.0,1100.0 1900.0,1100.0 1900.0,1300.0 1700.0,1300.0" /><poly id="j72" type="nodeBox" color="255,0,0" layer="0" shape="1700.0,1400.0 1900.0,1400.0 1900.0,1600.0 1700.0,1600.0" /><poly id="j73" type="nodeBox" color="255,0,0" layer="0" shape="1700.0,1700.0 1900.0,1700.0 1900.0,1900.0 1700.0,1900.0" /><poly id="j74" type="nodeBox" color="255,0,0" layer="0" shape="1700.0,2000.0 1900.0,2000.0 1900.0,2200.0 1700.0,2200.0" /><poly id="j75" type="nodeBox" color="255,0,0" layer="0" shape="1700.0,2300.0 1900.0,2300.0 1900.0,2500.0 1700.0,2500.0" /><poly id="j76" type="nodeBox" color="255,0,0" layer="0" shape="1700.0,2600.0 1900.0,2600.0 1900.0,2800.0 1700.0,2800.0" /><poly id="j77" type="nodeBox" color="255,0,0" layer="0" shape="2000.0,-100.0 2200.0,-100.0 2200.0,100.0 2000.0,100.0" /><poly id="j78" type="nodeBox" color="255,0,0" layer="0" shape="2000.0,200.0 2200.0,200.0 2200.0,400.0 2000.0,400.0" /><poly id="j79" type="nodeBox" color="255,0,0" layer="0" shape="2000.0,2900.0 2200.0,2900.0 2200.0,3100.0 2000.0,3100.0" /><poly id="j80" type="nodeBox" color="255,0,0" layer="0" shape="2000.0,500.0 2200.0,500.0 2200.0,700.0 2000.0,700.0" /><poly id="j81" type="nodeBox" color="255,0,0" layer="0" shape="2000.0,800.0 2200.0,800.0 2200.0,1000.0 2000.0,1000.0" /><poly id="j82" type="nodeBox" color="255,0,0" layer="0" shape="2000.0,1100.0 2200.0,1100.0 2200.0,1300.0 2000.0,1300.0" /><poly id="j83" type="nodeBox" color="255,0,0" layer="0" shape="2000.0,1400.0 2200.0,1400.0 2200.0,1600.0 2000.0,1600.0" /><poly id="j84" type="nodeBox" color="255,0,0" layer="0" shape="2000.0,1700.0 2200.0,1700.0 2200.0,1900.0 2000.0,1900.0" /><poly id="j85" type="nodeBox" color="255,0,0" layer="0" shape="2000.0,2000.0 2200.0,2000.0 2200.0,2200.0 2000.0,2200.0" /><poly id="j86" type="nodeBox" color="255,0,0" layer="0" shape="2000.0,2300.0 2200.0,2300.0 2200.0,2500.0 2000.0,2500.0" /><poly id="j87" type="nodeBox" color="255,0,0" layer="0" shape="2000.0,2600.0 2200.0,2600.0 2200.0,2800.0 2000.0,2800.0" /><poly id="j88" type="nodeBox" color="255,0,0" layer="0" shape="2300.0,-100.0 2500.0,-100.0 2500.0,100.0 2300.0,100.0" /><poly id="j89" type="nodeBox" color="255,0,0" layer="0" shape="2300.0,200.0 2500.0,200.0 2500.0,400.0 2300.0,400.0" /><poly id="j90" type="nodeBox" color="255,0,0" layer="0" shape="2300.0,2900.0 2500.0,2900.0 2500.0,3100.0 2300.0,3100.0" /><poly id="j91" type="nodeBox" color="255,0,0" layer="0" shape="2300.0,500.0 2500.0,500.0 2500.0,700.0 2300.0,700.0" /><poly id="j92" type="nodeBox" color="255,0,0" layer="0" shape="2300.0,800.0 2500.0,800.0 2500.0,1000.0 2300.0,1000.0" /><poly id="j93" type="nodeBox" color="255,0,0" layer="0" shape="2300.0,1100.0 2500.0,1100.0 2500.0,1300.0 2300.0,1300.0" /><poly id="j94" type="nodeBox" color="255,0,0" layer="0" shape="2300.0,1400.0 2500.0,1400.0 2500.0,1600.0 2300.0,1600.0" /><poly id="j95" type="nodeBox" color="255,0,0" layer="0" shape="2300.0,1700.0 2500.0,1700.0 2500.0,1900.0 2300.0,1900.0" /><poly id="j96" type="nodeBox" color="255,0,0" layer="0" shape="2300.0,2000.0 2500.0,2000.0 2500.0,2200.0 2300.0,2200.0" /><poly id="j97" type="nodeBox" color="255,0,0" layer="0" shape="2300.0,2300.0 2500.0,2300.0 2500.0,2500.0 2300.0,2500.0" /><poly id="j98" type="nodeBox" color="255,0,0" layer="0" shape="2300.0,2600.0 2500.0,2600.0 2500.0,2800.0 2300.0,2800.0" /><poly id="j99" type="nodeBox" color="255,0,0" layer="0" shape="2600.0,-100.0 2800.0,-100.0 2800.0,100.0 2600.0,100.0" /><poly id="j100" type="nodeBox" color="255,0,0" layer="0" shape="2600.0,200.0 2800.0,200.0 2800.0,400.0 2600.0,400.0" /><poly id="j101" type="nodeBox" color="255,0,0" layer="0" shape="2600.0,2900.0 2800.0,2900.0 2800.0,3100.0 2600.0,3100.0" /><poly id="j102" type="nodeBox" color="255,0,0" layer="0" shape="2600.0,500.0 2800.0,500.0 2800.0,700.0 2600.0,700.0" /><poly id="j103" type="nodeBox" color="255,0,0" layer="0" shape="2600.0,800.0 2800.0,800.0 2800.0,1000.0 2600.0,1000.0" /><poly id="j104" type="nodeBox" color="255,0,0" layer="0" shape="2600.0,1100.0 2800.0,1100.0 2800.0,1300.0 2600.0,1300.0" /><poly id="j105" type="nodeBox" color="255,0,0" layer="0" shape="2600.0,1400.0 2800.0,1400.0 2800.0,1600.0 2600.0,1600.0" /><poly id="j106" type="nodeBox" color="255,0,0" layer="0" shape="2600.0,1700.0 2800.0,1700.0 2800.0,1900.0 2600.0,1900.0" /><poly id="j107" type="nodeBox" color="255,0,0" layer="0" shape="2600.0,2000.0 2800.0,2000.0 2800.0,2200.0 2600.0,2200.0" /><poly id="j108" type="nodeBox" color="255,0,0" layer="0" shape="2600.0,2300.0 2800.0,2300.0 2800.0,2500.0 2600.0,2500.0" /><poly id="j109" type="nodeBox" color="255,0,0" layer="0" shape="2600.0,2600.0 2800.0,2600.0 2800.0,2800.0 2600.0,2800.0" /><poly id="j110" type="nodeBox" color="255,0,0" layer="0" shape="2900.0,-100.0 3100.0,-100.0 3100.0,100.0 2900.0,100.0" /><poly id="j111" type="nodeBox" color="255,0,0" layer="0" shape="2900.0,200.0 3100.0,200.0 3100.0,400.0 2900.0,400.0" /><poly id="j112" type="nodeBox" color="255,0,0" layer="0" shape="2900.0,2900.0 3100.0,2900.0 3100.0,3100.0 2900.0,3100.0" /><poly id="j113" type="nodeBox" color="255,0,0" layer="0" shape="2900.0,500.0 3100.0,500.0 3100.0,700.0 2900.0,700.0" /><poly id="j114" type="nodeBox" color="255,0,0" layer="0" shape="2900.0,800.0 3100.0,800.0 3100.0,1000.0 2900.0,1000.0" /><poly id="j115" type="nodeBox" color="255,0,0" layer="0" shape="2900.0,1100.0 3100.0,1100.0 3100.0,1300.0 2900.0,1300.0" /><poly id="j116" type="nodeBox" color="255,0,0" layer="0" shape="2900.0,1400.0 3100.0,1400.0 3100.0,1600.0 2900.0,1600.0" /><poly id="j117" type="nodeBox" color="255,0,0" layer="0" shape="2900.0,1700.0 3100.0,1700.0 3100.0,1900.0 2900.0,1900.0" /><poly id="j118" type="nodeBox" color="255,0,0" layer="0" shape="2900.0,2000.0 3100.0,2000.0 3100.0,2200.0 2900.0,2200.0" /><poly id="j119" type="nodeBox" color="255,0,0" layer="0" shape="2900.0,2300.0 3100.0,2300.0 3100.0,2500.0 2900.0,2500.0" /><poly id="j120" type="nodeBox" color="255,0,0" layer="0" shape="2900.0,2600.0 3100.0,2600.0 3100.0,2800.0 2900.0,2800.0" /></additional>